@<TRIPOS>MOLECULE
*****
 13 13 0 0 0
SMALL
GASTEIGER

@<TRIPOS>ATOM
      1 C          -3.1700    0.1355   -0.2766 C.3     1  UNL1        0.1325
      2 C          -1.8515    0.0370    0.5291 C.3     1  UNL1        0.1377
      3 C          -0.7990   -0.8226   -0.1689 C.3     1  UNL1       -0.0243
      4 H           0.1355   -0.8325    0.4310 H       1  UNL1        0.0266
      5 H          -0.5716   -0.4166   -1.1779 H       1  UNL1        0.0266
      6 H          -1.1681   -1.8651   -0.2708 H       1  UNL1        0.0266
      7 O          -3.3719    1.4854   -0.4414 O.3     1  UNL1       -0.4301
      8 H          -4.0142   -0.3190    0.2849 H       1  UNL1        0.0736
      9 H          -3.0912   -0.3314   -1.2829 H       1  UNL1        0.0736
     10 O          -1.4192    1.3376    0.6468 O.3     1  UNL1       -0.4273
     11 H          -2.0498   -0.3613    1.5486 H       1  UNL1        0.0767
     12 C          -2.3315    2.1378    0.0864 C.2     1  UNL1        0.5107
     13 O          -2.2260    3.3528    0.0621 O.2     1  UNL1       -0.2028
@<TRIPOS>BOND
     1     1     2    1
     2     2     3    1
     3     3     4    1
     4     3     5    1
     5     3     6    1
     6     1     7    1
     7     1     8    1
     8     1     9    1
     9     2    10    1
    10     2    11    1
    11     7    12    1
    12    10    12    1
    13    12    13    2
